25

C         -4.20400       -0.79070        0.33750
O         -3.28630        0.27680        0.27670
C         -1.91890        0.04760        0.14230
C         -1.42520       -1.21780        0.06530
C         -0.07080       -1.38450       -0.06660
C          0.82490       -0.30180       -0.12510
N          2.19930       -0.59670       -0.24650
C          3.20080        0.34410       -0.56610
C          4.62170       -0.15640       -0.64630
O          2.93920        1.53620       -0.77490
C          0.32840        0.96370       -0.04740
C         -1.05800        1.11650        0.08690
C         -1.58290        2.46160        0.16880
O         -2.82160        2.61790        0.28930
H         -3.98830       -1.46530       -0.51000
H         -5.22280       -0.35240        0.27050
H         -4.14480       -1.32290        1.30030
H         -2.10380       -2.06190        0.10900
H          0.30470       -2.39350       -0.12670
H          2.49680       -1.62200       -0.07620
H          4.61950       -1.26070       -0.85300
H          5.15050        0.32590       -1.49440
H          5.18420        0.05310        0.26650
H          0.92000        1.85820       -0.07300
H         -0.96270        3.32500        0.13110
